<?xml version="1.0" encoding="UTF-8"?>

<!-- generated on 2026-02-05T00:05:18.109593+05:30 by Eclipse SUMO netgenerate 1.26.0
<netgenerateConfiguration xmlns:xsi="http://www.w3.org/2001/XMLSchema-instance" xsi:noNamespaceSchemaLocation="http://sumo.dlr.de/xsd/netgenerateConfiguration.xsd">

    <spider_network>
        <spider value="true"/>
        <spider.arm-number value="4"/>
    </spider_network>

    <output>
        <output-file value="intersection.net.xml"/>
    </output>

    <building_defaults>
        <default-junction-type value="traffic_light"/>
    </building_defaults>

    <tls_building>
        <tls.guess value="true"/>
    </tls_building>

    <junctions>
        <no-turnarounds value="true"/>
    </junctions>

</netgenerateConfiguration>
-->

<net version="1.20" junctionCornerDetail="5" limitTurnSpeed="5.50" xmlns:xsi="http://www.w3.org/2001/XMLSchema-instance" xsi:noNamespaceSchemaLocation="http://sumo.dlr.de/xsd/net_file.xsd">

    <location netOffset="500.00,500.00" convBoundary="0.00,0.00,1000.00,1000.00" origBoundary="-500.00,-500.00,500.00,500.00" projParameter="!"/>

    <edge id=":A1_0" function="internal">
        <lane id=":A1_0_0" index="0" speed="6.51" length="9.03" shape="498.40,507.20 498.05,504.75 497.00,503.00 495.25,501.95 492.80,501.60"/>
    </edge>
    <edge id=":A1_1" function="internal">
        <lane id=":A1_1_0" index="0" speed="13.89" length="14.40" shape="498.40,507.20 498.40,492.80"/>
    </edge>
    <edge id=":A1_2" function="internal">
        <lane id=":A1_2_0" index="0" speed="7.80" length="13.44" shape="498.40,507.20 499.19,504.07 501.24,501.24 504.07,499.19 507.20,498.40"/>
    </edge>
    <edge id=":A1_3" function="internal">
        <lane id=":A1_3_0" index="0" speed="6.51" length="9.03" shape="507.20,501.60 504.75,501.95 503.00,503.00 501.95,504.75 501.60,507.20"/>
    </edge>
    <edge id=":A1_4" function="internal">
        <lane id=":A1_4_0" index="0" speed="13.89" length="14.40" shape="507.20,501.60 492.80,501.60"/>
    </edge>
    <edge id=":A1_5" function="internal">
        <lane id=":A1_5_0" index="0" speed="7.80" length="13.44" shape="507.20,501.60 504.07,500.81 501.24,498.76 499.19,495.93 498.40,492.80"/>
    </edge>
    <edge id=":A1_6" function="internal">
        <lane id=":A1_6_0" index="0" speed="6.51" length="9.03" shape="501.60,492.80 501.95,495.25 503.00,497.00 504.75,498.05 507.20,498.40"/>
    </edge>
    <edge id=":A1_7" function="internal">
        <lane id=":A1_7_0" index="0" speed="13.89" length="14.40" shape="501.60,492.80 501.60,507.20"/>
    </edge>
    <edge id=":A1_8" function="internal">
        <lane id=":A1_8_0" index="0" speed="7.80" length="13.44" shape="501.60,492.80 500.81,495.93 498.76,498.76 495.93,500.81 492.80,501.60"/>
    </edge>
    <edge id=":A1_9" function="internal">
        <lane id=":A1_9_0" index="0" speed="6.51" length="9.03" shape="492.80,498.40 495.25,498.05 497.00,497.00 498.05,495.25 498.40,492.80"/>
    </edge>
    <edge id=":A1_10" function="internal">
        <lane id=":A1_10_0" index="0" speed="13.89" length="14.40" shape="492.80,498.40 507.20,498.40"/>
    </edge>
    <edge id=":A1_11" function="internal">
        <lane id=":A1_11_0" index="0" speed="7.80" length="13.44" shape="492.80,498.40 495.93,499.19 498.76,501.24 500.81,504.07 501.60,507.20"/>
    </edge>
    <edge id=":B1_0" function="internal">
        <lane id=":B1_0_0" index="0" speed="12.77" length="15.10" shape="605.33,501.60 601.76,502.33 598.53,504.19 595.58,506.71 592.84,509.42"/>
    </edge>
    <edge id=":B1_1" function="internal">
        <lane id=":B1_1_0" index="0" speed="13.89" length="17.05" shape="605.33,501.60 588.27,501.60"/>
    </edge>
    <edge id=":B1_2" function="internal">
        <lane id=":B1_2_0" index="0" speed="13.73" length="3.53" shape="605.33,501.60 602.16,501.05 601.87,500.92"/>
    </edge>
    <edge id=":B1_12" function="internal">
        <lane id=":B1_12_0" index="0" speed="13.73" length="13.98" shape="601.87,500.92 598.64,499.41 594.78,496.67 590.58,492.84"/>
    </edge>
    <edge id=":B1_3" function="internal">
        <lane id=":B1_3_0" index="0" speed="12.73" length="15.02" shape="592.84,490.58 596.55,494.00 599.87,496.44 602.80,497.91 605.33,498.40"/>
    </edge>
    <edge id=":B1_4" function="internal">
        <lane id=":B1_4_0" index="0" speed="9.73" length="21.49" shape="592.84,490.58 596.37,495.29 597.55,500.00 596.37,504.71 592.84,509.42"/>
    </edge>
    <edge id=":B1_5" function="internal">
        <lane id=":B1_5_0" index="0" speed="7.42" length="9.49" shape="592.84,490.58 596.69,495.40 597.19,498.68"/>
    </edge>
    <edge id=":B1_13" function="internal">
        <lane id=":B1_13_0" index="0" speed="7.42" length="9.82" shape="597.19,498.68 597.21,498.84 594.41,500.91 588.27,501.60"/>
    </edge>
    <edge id=":B1_6" function="internal">
        <lane id=":B1_6_0" index="0" speed="5.47" length="9.74" shape="588.27,498.40 591.37,498.05 592.78,497.01 592.52,495.27 590.58,492.84"/>
    </edge>
    <edge id=":B1_7" function="internal">
        <lane id=":B1_7_0" index="0" speed="13.89" length="17.05" shape="588.27,498.40 605.33,498.40"/>
    </edge>
    <edge id=":B1_8" function="internal">
        <lane id=":B1_8_0" index="0" speed="7.42" length="6.00" shape="588.27,498.40 594.24,499.07"/>
    </edge>
    <edge id=":B1_14" function="internal">
        <lane id=":B1_14_0" index="0" speed="7.42" length="13.30" shape="594.24,499.07 594.41,499.09 597.21,501.16 596.69,504.60 592.84,509.42"/>
    </edge>
    <edge id=":B1_9" function="internal">
        <lane id=":B1_9_0" index="0" speed="5.47" length="9.74" shape="590.58,507.16 592.52,504.73 592.78,502.99 591.37,501.95 588.27,501.60"/>
    </edge>
    <edge id=":B1_10" function="internal">
        <lane id=":B1_10_0" index="0" speed="8.54" length="16.33" shape="590.58,507.16 593.26,503.58 594.16,500.00 593.26,496.42 590.58,492.84"/>
    </edge>
    <edge id=":B1_11" function="internal">
        <lane id=":B1_11_0" index="0" speed="13.73" length="3.65" shape="590.58,507.16 593.28,504.70"/>
    </edge>
    <edge id=":B1_15" function="internal">
        <lane id=":B1_15_0" index="0" speed="13.73" length="13.87" shape="593.28,504.70 594.78,503.33 598.64,500.59 602.16,498.95 605.33,498.40"/>
    </edge>
    <edge id=":B2_0" function="internal">
        <lane id=":B2_0_0" index="0" speed="12.73" length="15.02" shape="498.40,605.33 497.91,602.80 496.44,599.87 494.00,596.55 490.58,592.84"/>
    </edge>
    <edge id=":B2_1" function="internal">
        <lane id=":B2_1_0" index="0" speed="13.89" length="17.05" shape="498.40,605.33 498.40,588.27"/>
    </edge>
    <edge id=":B2_2" function="internal">
        <lane id=":B2_2_0" index="0" speed="13.71" length="3.32" shape="498.40,605.33 499.12,602.08"/>
    </edge>
    <edge id=":B2_12" function="internal">
        <lane id=":B2_12_0" index="0" speed="13.71" length="14.16" shape="499.12,602.08 499.27,601.41 501.45,597.40 504.30,593.67 507.16,590.58"/>
    </edge>
    <edge id=":B2_3" function="internal">
        <lane id=":B2_3_0" index="0" speed="12.73" length="15.02" shape="509.42,592.84 506.00,596.55 503.56,599.87 502.09,602.80 501.60,605.33"/>
    </edge>
    <edge id=":B2_4" function="internal">
        <lane id=":B2_4_0" index="0" speed="9.73" length="21.49" shape="509.42,592.84 504.71,596.37 500.00,597.55 495.29,596.37 490.58,592.84"/>
    </edge>
    <edge id=":B2_5" function="internal">
        <lane id=":B2_5_0" index="0" speed="7.42" length="9.49" shape="509.42,592.84 504.60,596.69 501.32,597.19"/>
    </edge>
    <edge id=":B2_13" function="internal">
        <lane id=":B2_13_0" index="0" speed="7.42" length="9.82" shape="501.32,597.19 501.16,597.21 499.09,594.41 498.40,588.27"/>
    </edge>
    <edge id=":B2_6" function="internal">
        <lane id=":B2_6_0" index="0" speed="5.47" length="9.74" shape="501.60,588.27 501.95,591.37 502.99,592.78 504.73,592.52 507.16,590.58"/>
    </edge>
    <edge id=":B2_7" function="internal">
        <lane id=":B2_7_0" index="0" speed="13.89" length="17.05" shape="501.60,588.27 501.60,605.33"/>
    </edge>
    <edge id=":B2_8" function="internal">
        <lane id=":B2_8_0" index="0" speed="7.42" length="6.00" shape="501.60,588.27 500.93,594.24"/>
    </edge>
    <edge id=":B2_14" function="internal">
        <lane id=":B2_14_0" index="0" speed="7.42" length="13.30" shape="500.93,594.24 500.91,594.41 498.84,597.21 495.40,596.69 490.58,592.84"/>
    </edge>
    <edge id=":B2_9" function="internal">
        <lane id=":B2_9_0" index="0" speed="5.47" length="9.74" shape="492.84,590.58 495.27,592.52 497.01,592.78 498.05,591.37 498.40,588.27"/>
    </edge>
    <edge id=":B2_10" function="internal">
        <lane id=":B2_10_0" index="0" speed="8.54" length="16.33" shape="492.84,590.58 496.42,593.26 500.00,594.16 503.58,593.26 507.16,590.58"/>
    </edge>
    <edge id=":B2_11" function="internal">
        <lane id=":B2_11_0" index="0" speed="13.73" length="3.65" shape="492.84,590.58 495.30,593.28"/>
    </edge>
    <edge id=":B2_15" function="internal">
        <lane id=":B2_15_0" index="0" speed="13.73" length="13.87" shape="495.30,593.28 496.67,594.78 499.41,598.64 501.05,602.16 501.60,605.33"/>
    </edge>
    <edge id=":B3_0" function="internal">
        <lane id=":B3_0_0" index="0" speed="12.73" length="15.02" shape="407.16,509.42 403.45,506.00 400.13,503.56 397.20,502.09 394.67,501.60"/>
    </edge>
    <edge id=":B3_1" function="internal">
        <lane id=":B3_1_0" index="0" speed="9.73" length="21.49" shape="407.16,509.42 403.63,504.71 402.45,500.00 403.63,495.29 407.16,490.58"/>
    </edge>
    <edge id=":B3_2" function="internal">
        <lane id=":B3_2_0" index="0" speed="7.42" length="9.49" shape="407.16,509.42 403.31,504.60 402.81,501.32"/>
    </edge>
    <edge id=":B3_12" function="internal">
        <lane id=":B3_12_0" index="0" speed="7.42" length="9.82" shape="402.81,501.32 402.79,501.16 405.59,499.09 411.73,498.40"/>
    </edge>
    <edge id=":B3_3" function="internal">
        <lane id=":B3_3_0" index="0" speed="5.47" length="9.74" shape="411.73,501.60 408.63,501.95 407.22,502.99 407.48,504.73 409.42,507.16"/>
    </edge>
    <edge id=":B3_4" function="internal">
        <lane id=":B3_4_0" index="0" speed="13.89" length="17.05" shape="411.73,501.60 394.67,501.60"/>
    </edge>
    <edge id=":B3_5" function="internal">
        <lane id=":B3_5_0" index="0" speed="7.42" length="6.00" shape="411.73,501.60 405.76,500.93"/>
    </edge>
    <edge id=":B3_13" function="internal">
        <lane id=":B3_13_0" index="0" speed="7.42" length="13.30" shape="405.76,500.93 405.59,500.91 402.79,498.84 403.31,495.40 407.16,490.58"/>
    </edge>
    <edge id=":B3_6" function="internal">
        <lane id=":B3_6_0" index="0" speed="5.47" length="9.74" shape="409.42,492.84 407.48,495.27 407.22,497.01 408.63,498.05 411.73,498.40"/>
    </edge>
    <edge id=":B3_7" function="internal">
        <lane id=":B3_7_0" index="0" speed="8.54" length="16.33" shape="409.42,492.84 406.74,496.42 405.84,500.00 406.74,503.58 409.42,507.16"/>
    </edge>
    <edge id=":B3_8" function="internal">
        <lane id=":B3_8_0" index="0" speed="13.73" length="3.65" shape="409.42,492.84 406.72,495.30"/>
    </edge>
    <edge id=":B3_14" function="internal">
        <lane id=":B3_14_0" index="0" speed="13.73" length="13.87" shape="406.72,495.30 405.22,496.67 401.36,499.41 397.84,501.05 394.67,501.60"/>
    </edge>
    <edge id=":B3_9" function="internal">
        <lane id=":B3_9_0" index="0" speed="12.73" length="15.02" shape="394.67,498.40 397.20,497.91 400.13,496.44 403.45,494.00 407.16,490.58"/>
    </edge>
    <edge id=":B3_10" function="internal">
        <lane id=":B3_10_0" index="0" speed="13.89" length="17.05" shape="394.67,498.40 411.73,498.40"/>
    </edge>
    <edge id=":B3_11" function="internal">
        <lane id=":B3_11_0" index="0" speed="13.71" length="3.32" shape="394.67,498.40 397.92,499.12"/>
    </edge>
    <edge id=":B3_15" function="internal">
        <lane id=":B3_15_0" index="0" speed="13.71" length="14.16" shape="397.92,499.12 398.59,499.27 402.60,501.45 406.33,504.30 409.42,507.16"/>
    </edge>
    <edge id=":B4_0" function="internal">
        <lane id=":B4_0_0" index="0" speed="5.47" length="9.74" shape="498.40,411.73 498.05,408.63 497.01,407.22 495.27,407.48 492.84,409.42"/>
    </edge>
    <edge id=":B4_1" function="internal">
        <lane id=":B4_1_0" index="0" speed="13.89" length="17.05" shape="498.40,411.73 498.40,394.67"/>
    </edge>
    <edge id=":B4_2" function="internal">
        <lane id=":B4_2_0" index="0" speed="7.42" length="6.00" shape="498.40,411.73 499.07,405.76"/>
    </edge>
    <edge id=":B4_12" function="internal">
        <lane id=":B4_12_0" index="0" speed="7.42" length="13.30" shape="499.07,405.76 499.09,405.59 501.16,402.79 504.60,403.31 509.42,407.16"/>
    </edge>
    <edge id=":B4_3" function="internal">
        <lane id=":B4_3_0" index="0" speed="5.47" length="9.74" shape="507.16,409.42 504.73,407.48 502.99,407.22 501.95,408.63 501.60,411.73"/>
    </edge>
    <edge id=":B4_4" function="internal">
        <lane id=":B4_4_0" index="0" speed="8.54" length="16.33" shape="507.16,409.42 503.58,406.74 500.00,405.84 496.42,406.74 492.84,409.42"/>
    </edge>
    <edge id=":B4_5" function="internal">
        <lane id=":B4_5_0" index="0" speed="13.71" length="3.79" shape="507.16,409.42 504.58,406.64"/>
    </edge>
    <edge id=":B4_13" function="internal">
        <lane id=":B4_13_0" index="0" speed="13.71" length="13.69" shape="504.58,406.64 504.30,406.33 501.45,402.60 499.27,398.59 498.40,394.67"/>
    </edge>
    <edge id=":B4_6" function="internal">
        <lane id=":B4_6_0" index="0" speed="12.73" length="15.02" shape="501.60,394.67 502.09,397.20 503.56,400.13 506.00,403.45 509.42,407.16"/>
    </edge>
    <edge id=":B4_7" function="internal">
        <lane id=":B4_7_0" index="0" speed="13.89" length="17.05" shape="501.60,394.67 501.60,411.73"/>
    </edge>
    <edge id=":B4_8" function="internal">
        <lane id=":B4_8_0" index="0" speed="13.73" length="3.53" shape="501.60,394.67 501.05,397.84 500.92,398.13"/>
    </edge>
    <edge id=":B4_14" function="internal">
        <lane id=":B4_14_0" index="0" speed="13.73" length="13.98" shape="500.92,398.13 499.41,401.36 496.67,405.22 492.84,409.42"/>
    </edge>
    <edge id=":B4_9" function="internal">
        <lane id=":B4_9_0" index="0" speed="12.73" length="15.02" shape="490.58,407.16 494.00,403.45 496.44,400.13 497.91,397.20 498.40,394.67"/>
    </edge>
    <edge id=":B4_10" function="internal">
        <lane id=":B4_10_0" index="0" speed="9.73" length="21.49" shape="490.58,407.16 495.29,403.63 500.00,402.45 504.71,403.63 509.42,407.16"/>
    </edge>
    <edge id=":B4_11" function="internal">
        <lane id=":B4_11_0" index="0" speed="7.42" length="9.49" shape="490.58,407.16 495.40,403.31 498.68,402.81"/>
    </edge>
    <edge id=":B4_15" function="internal">
        <lane id=":B4_15_0" index="0" speed="7.42" length="9.82" shape="498.68,402.81 498.84,402.79 500.91,405.59 501.60,411.73"/>
    </edge>
    <edge id=":C1_0" function="internal">
        <lane id=":C1_0_0" index="0" speed="12.73" length="15.02" shape="705.33,501.60 702.80,502.09 699.87,503.56 696.55,506.00 692.84,509.42"/>
    </edge>
    <edge id=":C1_1" function="internal">
        <lane id=":C1_1_0" index="0" speed="13.89" length="17.05" shape="705.33,501.60 688.27,501.60"/>
    </edge>
    <edge id=":C1_2" function="internal">
        <lane id=":C1_2_0" index="0" speed="13.73" length="3.53" shape="705.33,501.60 702.16,501.05 701.87,500.92"/>
    </edge>
    <edge id=":C1_12" function="internal">
        <lane id=":C1_12_0" index="0" speed="13.73" length="13.98" shape="701.87,500.92 698.64,499.41 694.78,496.67 690.58,492.84"/>
    </edge>
    <edge id=":C1_3" function="internal">
        <lane id=":C1_3_0" index="0" speed="12.73" length="15.02" shape="692.84,490.58 696.55,494.00 699.87,496.44 702.80,497.91 705.33,498.40"/>
    </edge>
    <edge id=":C1_4" function="internal">
        <lane id=":C1_4_0" index="0" speed="9.73" length="21.49" shape="692.84,490.58 696.37,495.29 697.55,500.00 696.37,504.71 692.84,509.42"/>
    </edge>
    <edge id=":C1_5" function="internal">
        <lane id=":C1_5_0" index="0" speed="7.42" length="9.49" shape="692.84,490.58 696.69,495.40 697.19,498.68"/>
    </edge>
    <edge id=":C1_13" function="internal">
        <lane id=":C1_13_0" index="0" speed="7.42" length="9.82" shape="697.19,498.68 697.21,498.84 694.41,500.91 688.27,501.60"/>
    </edge>
    <edge id=":C1_6" function="internal">
        <lane id=":C1_6_0" index="0" speed="5.47" length="9.74" shape="688.27,498.40 691.37,498.05 692.78,497.01 692.52,495.27 690.58,492.84"/>
    </edge>
    <edge id=":C1_7" function="internal">
        <lane id=":C1_7_0" index="0" speed="13.89" length="17.05" shape="688.27,498.40 705.33,498.40"/>
    </edge>
    <edge id=":C1_8" function="internal">
        <lane id=":C1_8_0" index="0" speed="7.42" length="6.00" shape="688.27,498.40 694.24,499.07"/>
    </edge>
    <edge id=":C1_14" function="internal">
        <lane id=":C1_14_0" index="0" speed="7.42" length="13.30" shape="694.24,499.07 694.41,499.09 697.21,501.16 696.69,504.60 692.84,509.42"/>
    </edge>
    <edge id=":C1_9" function="internal">
        <lane id=":C1_9_0" index="0" speed="5.47" length="9.74" shape="690.58,507.16 692.52,504.73 692.78,502.99 691.37,501.95 688.27,501.60"/>
    </edge>
    <edge id=":C1_10" function="internal">
        <lane id=":C1_10_0" index="0" speed="8.54" length="16.33" shape="690.58,507.16 693.26,503.58 694.16,500.00 693.26,496.42 690.58,492.84"/>
    </edge>
    <edge id=":C1_11" function="internal">
        <lane id=":C1_11_0" index="0" speed="13.73" length="3.65" shape="690.58,507.16 693.28,504.70"/>
    </edge>
    <edge id=":C1_15" function="internal">
        <lane id=":C1_15_0" index="0" speed="13.73" length="13.87" shape="693.28,504.70 694.78,503.33 698.64,500.59 702.16,498.95 705.33,498.40"/>
    </edge>
    <edge id=":C2_0" function="internal">
        <lane id=":C2_0_0" index="0" speed="12.73" length="15.02" shape="498.40,705.33 497.91,702.80 496.44,699.87 494.00,696.55 490.58,692.84"/>
    </edge>
    <edge id=":C2_1" function="internal">
        <lane id=":C2_1_0" index="0" speed="13.89" length="17.05" shape="498.40,705.33 498.40,688.27"/>
    </edge>
    <edge id=":C2_2" function="internal">
        <lane id=":C2_2_0" index="0" speed="13.73" length="3.53" shape="498.40,705.33 498.95,702.16 499.08,701.87"/>
    </edge>
    <edge id=":C2_12" function="internal">
        <lane id=":C2_12_0" index="0" speed="13.73" length="13.98" shape="499.08,701.87 500.59,698.64 503.33,694.78 507.16,690.58"/>
    </edge>
    <edge id=":C2_3" function="internal">
        <lane id=":C2_3_0" index="0" speed="12.73" length="15.02" shape="509.42,692.84 506.00,696.55 503.56,699.87 502.09,702.80 501.60,705.33"/>
    </edge>
    <edge id=":C2_4" function="internal">
        <lane id=":C2_4_0" index="0" speed="9.73" length="21.49" shape="509.42,692.84 504.71,696.37 500.00,697.55 495.29,696.37 490.58,692.84"/>
    </edge>
    <edge id=":C2_5" function="internal">
        <lane id=":C2_5_0" index="0" speed="7.42" length="9.49" shape="509.42,692.84 504.60,696.69 501.32,697.19"/>
    </edge>
    <edge id=":C2_13" function="internal">
        <lane id=":C2_13_0" index="0" speed="7.42" length="9.82" shape="501.32,697.19 501.16,697.21 499.09,694.41 498.40,688.27"/>
    </edge>
    <edge id=":C2_6" function="internal">
        <lane id=":C2_6_0" index="0" speed="5.47" length="9.74" shape="501.60,688.27 501.95,691.37 502.99,692.78 504.73,692.52 507.16,690.58"/>
    </edge>
    <edge id=":C2_7" function="internal">
        <lane id=":C2_7_0" index="0" speed="13.89" length="17.05" shape="501.60,688.27 501.60,705.33"/>
    </edge>
    <edge id=":C2_8" function="internal">
        <lane id=":C2_8_0" index="0" speed="7.42" length="6.00" shape="501.60,688.27 500.93,694.24"/>
    </edge>
    <edge id=":C2_14" function="internal">
        <lane id=":C2_14_0" index="0" speed="7.42" length="13.30" shape="500.93,694.24 500.91,694.41 498.84,697.21 495.40,696.69 490.58,692.84"/>
    </edge>
    <edge id=":C2_9" function="internal">
        <lane id=":C2_9_0" index="0" speed="5.47" length="9.74" shape="492.84,690.58 495.27,692.52 497.01,692.78 498.05,691.37 498.40,688.27"/>
    </edge>
    <edge id=":C2_10" function="internal">
        <lane id=":C2_10_0" index="0" speed="8.54" length="16.33" shape="492.84,690.58 496.42,693.26 500.00,694.16 503.58,693.26 507.16,690.58"/>
    </edge>
    <edge id=":C2_11" function="internal">
        <lane id=":C2_11_0" index="0" speed="13.73" length="3.65" shape="492.84,690.58 495.30,693.28"/>
    </edge>
    <edge id=":C2_15" function="internal">
        <lane id=":C2_15_0" index="0" speed="13.73" length="13.87" shape="495.30,693.28 496.67,694.78 499.41,698.64 501.05,702.16 501.60,705.33"/>
    </edge>
    <edge id=":C3_0" function="internal">
        <lane id=":C3_0_0" index="0" speed="12.73" length="15.02" shape="307.16,509.42 303.45,506.00 300.13,503.56 297.20,502.09 294.67,501.60"/>
    </edge>
    <edge id=":C3_1" function="internal">
        <lane id=":C3_1_0" index="0" speed="9.73" length="21.49" shape="307.16,509.42 303.63,504.71 302.45,500.00 303.63,495.29 307.16,490.58"/>
    </edge>
    <edge id=":C3_2" function="internal">
        <lane id=":C3_2_0" index="0" speed="7.42" length="9.49" shape="307.16,509.42 303.31,504.60 302.81,501.32"/>
    </edge>
    <edge id=":C3_12" function="internal">
        <lane id=":C3_12_0" index="0" speed="7.42" length="9.82" shape="302.81,501.32 302.79,501.16 305.59,499.09 311.73,498.40"/>
    </edge>
    <edge id=":C3_3" function="internal">
        <lane id=":C3_3_0" index="0" speed="5.47" length="9.74" shape="311.73,501.60 308.63,501.95 307.22,502.99 307.48,504.73 309.42,507.16"/>
    </edge>
    <edge id=":C3_4" function="internal">
        <lane id=":C3_4_0" index="0" speed="13.89" length="17.05" shape="311.73,501.60 294.67,501.60"/>
    </edge>
    <edge id=":C3_5" function="internal">
        <lane id=":C3_5_0" index="0" speed="7.42" length="6.00" shape="311.73,501.60 305.76,500.93"/>
    </edge>
    <edge id=":C3_13" function="internal">
        <lane id=":C3_13_0" index="0" speed="7.42" length="13.30" shape="305.76,500.93 305.59,500.91 302.79,498.84 303.31,495.40 307.16,490.58"/>
    </edge>
    <edge id=":C3_6" function="internal">
        <lane id=":C3_6_0" index="0" speed="5.47" length="9.74" shape="309.42,492.84 307.48,495.27 307.22,497.01 308.63,498.05 311.73,498.40"/>
    </edge>
    <edge id=":C3_7" function="internal">
        <lane id=":C3_7_0" index="0" speed="8.54" length="16.33" shape="309.42,492.84 306.74,496.42 305.84,500.00 306.74,503.58 309.42,507.16"/>
    </edge>
    <edge id=":C3_8" function="internal">
        <lane id=":C3_8_0" index="0" speed="13.73" length="3.65" shape="309.42,492.84 306.72,495.30"/>
    </edge>
    <edge id=":C3_14" function="internal">
        <lane id=":C3_14_0" index="0" speed="13.73" length="13.87" shape="306.72,495.30 305.22,496.67 301.36,499.41 297.84,501.05 294.67,501.60"/>
    </edge>
    <edge id=":C3_9" function="internal">
        <lane id=":C3_9_0" index="0" speed="12.73" length="15.02" shape="294.67,498.40 297.20,497.91 300.13,496.44 303.45,494.00 307.16,490.58"/>
    </edge>
    <edge id=":C3_10" function="internal">
        <lane id=":C3_10_0" index="0" speed="13.89" length="17.05" shape="294.67,498.40 311.73,498.40"/>
    </edge>
    <edge id=":C3_11" function="internal">
        <lane id=":C3_11_0" index="0" speed="13.73" length="3.53" shape="294.67,498.40 297.84,498.95 298.13,499.08"/>
    </edge>
    <edge id=":C3_15" function="internal">
        <lane id=":C3_15_0" index="0" speed="13.73" length="13.98" shape="298.13,499.08 301.36,500.59 305.22,503.33 309.42,507.16"/>
    </edge>
    <edge id=":C4_0" function="internal">
        <lane id=":C4_0_0" index="0" speed="5.47" length="9.74" shape="498.40,311.73 498.05,308.63 497.01,307.22 495.27,307.48 492.84,309.42"/>
    </edge>
    <edge id=":C4_1" function="internal">
        <lane id=":C4_1_0" index="0" speed="13.89" length="17.05" shape="498.40,311.73 498.40,294.67"/>
    </edge>
    <edge id=":C4_2" function="internal">
        <lane id=":C4_2_0" index="0" speed="7.42" length="6.00" shape="498.40,311.73 499.07,305.76"/>
    </edge>
    <edge id=":C4_12" function="internal">
        <lane id=":C4_12_0" index="0" speed="7.42" length="13.30" shape="499.07,305.76 499.09,305.59 501.16,302.79 504.60,303.31 509.42,307.16"/>
    </edge>
    <edge id=":C4_3" function="internal">
        <lane id=":C4_3_0" index="0" speed="5.47" length="9.74" shape="507.16,309.42 504.73,307.48 502.99,307.22 501.95,308.63 501.60,311.73"/>
    </edge>
    <edge id=":C4_4" function="internal">
        <lane id=":C4_4_0" index="0" speed="8.54" length="16.33" shape="507.16,309.42 503.58,306.74 500.00,305.84 496.42,306.74 492.84,309.42"/>
    </edge>
    <edge id=":C4_5" function="internal">
        <lane id=":C4_5_0" index="0" speed="13.73" length="3.65" shape="507.16,309.42 504.70,306.72"/>
    </edge>
    <edge id=":C4_13" function="internal">
        <lane id=":C4_13_0" index="0" speed="13.73" length="13.87" shape="504.70,306.72 503.33,305.22 500.59,301.36 498.95,297.84 498.40,294.67"/>
    </edge>
    <edge id=":C4_6" function="internal">
        <lane id=":C4_6_0" index="0" speed="12.73" length="15.02" shape="501.60,294.67 502.09,297.20 503.56,300.13 506.00,303.45 509.42,307.16"/>
    </edge>
    <edge id=":C4_7" function="internal">
        <lane id=":C4_7_0" index="0" speed="13.89" length="17.05" shape="501.60,294.67 501.60,311.73"/>
    </edge>
    <edge id=":C4_8" function="internal">
        <lane id=":C4_8_0" index="0" speed="13.73" length="3.53" shape="501.60,294.67 501.05,297.84 500.92,298.13"/>
    </edge>
    <edge id=":C4_14" function="internal">
        <lane id=":C4_14_0" index="0" speed="13.73" length="13.98" shape="500.92,298.13 499.41,301.36 496.67,305.22 492.84,309.42"/>
    </edge>
    <edge id=":C4_9" function="internal">
        <lane id=":C4_9_0" index="0" speed="12.73" length="15.02" shape="490.58,307.16 494.00,303.45 496.44,300.13 497.91,297.20 498.40,294.67"/>
    </edge>
    <edge id=":C4_10" function="internal">
        <lane id=":C4_10_0" index="0" speed="9.73" length="21.49" shape="490.58,307.16 495.29,303.63 500.00,302.45 504.71,303.63 509.42,307.16"/>
    </edge>
    <edge id=":C4_11" function="internal">
        <lane id=":C4_11_0" index="0" speed="7.42" length="9.49" shape="490.58,307.16 495.40,303.31 498.68,302.81"/>
    </edge>
    <edge id=":C4_15" function="internal">
        <lane id=":C4_15_0" index="0" speed="7.42" length="9.82" shape="498.68,302.81 498.84,302.79 500.91,305.59 501.60,311.73"/>
    </edge>
    <edge id=":D1_0" function="internal">
        <lane id=":D1_0_0" index="0" speed="12.73" length="15.02" shape="805.33,501.60 802.80,502.09 799.87,503.56 796.55,506.00 792.84,509.42"/>
    </edge>
    <edge id=":D1_1" function="internal">
        <lane id=":D1_1_0" index="0" speed="13.89" length="17.05" shape="805.33,501.60 788.27,501.60"/>
    </edge>
    <edge id=":D1_2" function="internal">
        <lane id=":D1_2_0" index="0" speed="13.73" length="3.53" shape="805.33,501.60 802.16,501.05 801.87,500.92"/>
    </edge>
    <edge id=":D1_12" function="internal">
        <lane id=":D1_12_0" index="0" speed="13.73" length="13.98" shape="801.87,500.92 798.64,499.41 794.78,496.67 790.58,492.84"/>
    </edge>
    <edge id=":D1_3" function="internal">
        <lane id=":D1_3_0" index="0" speed="12.73" length="15.02" shape="792.84,490.58 796.55,494.00 799.87,496.44 802.80,497.91 805.33,498.40"/>
    </edge>
    <edge id=":D1_4" function="internal">
        <lane id=":D1_4_0" index="0" speed="9.73" length="21.49" shape="792.84,490.58 796.37,495.29 797.55,500.00 796.37,504.71 792.84,509.42"/>
    </edge>
    <edge id=":D1_5" function="internal">
        <lane id=":D1_5_0" index="0" speed="7.42" length="9.49" shape="792.84,490.58 796.69,495.40 797.19,498.68"/>
    </edge>
    <edge id=":D1_13" function="internal">
        <lane id=":D1_13_0" index="0" speed="7.42" length="9.82" shape="797.19,498.68 797.21,498.84 794.41,500.91 788.27,501.60"/>
    </edge>
    <edge id=":D1_6" function="internal">
        <lane id=":D1_6_0" index="0" speed="5.47" length="9.74" shape="788.27,498.40 791.37,498.05 792.78,497.01 792.52,495.27 790.58,492.84"/>
    </edge>
    <edge id=":D1_7" function="internal">
        <lane id=":D1_7_0" index="0" speed="13.89" length="17.05" shape="788.27,498.40 805.33,498.40"/>
    </edge>
    <edge id=":D1_8" function="internal">
        <lane id=":D1_8_0" index="0" speed="7.42" length="6.00" shape="788.27,498.40 794.24,499.07"/>
    </edge>
    <edge id=":D1_14" function="internal">
        <lane id=":D1_14_0" index="0" speed="7.42" length="13.30" shape="794.24,499.07 794.41,499.09 797.21,501.16 796.69,504.60 792.84,509.42"/>
    </edge>
    <edge id=":D1_9" function="internal">
        <lane id=":D1_9_0" index="0" speed="5.47" length="9.74" shape="790.58,507.16 792.52,504.73 792.78,502.99 791.37,501.95 788.27,501.60"/>
    </edge>
    <edge id=":D1_10" function="internal">
        <lane id=":D1_10_0" index="0" speed="8.54" length="16.33" shape="790.58,507.16 793.26,503.58 794.16,500.00 793.26,496.42 790.58,492.84"/>
    </edge>